GURNEY
OWNETH
WHILOME
TRUMPING
CONQUERETH
REPINE
HOMED
DULE
LISTENETH
WRITEST
HIJAZ
OBEYETH
CHIDES
RESTORETH
LOSETH
DEARLING
GIRTHING
INTENDETH
COUNTETH
ETHERS
EFFEMINATED
VEXETH
PROFITETH
VERSIFYING
ABSTINENT
ABSTAINER
WOTTING
EYNE
NT
TEED
LIEST
ADDUCE
RECKONETH
ABI
HISHAM
DISTICHS
SINNETH
FAREST
LILAS'S
TYN
SANITARS
VACUUMS
MOUNTCLERE
BARDOLF
CALE
DEEDING
FOSCOLO'S
FEASTER
WOLFGANG'S
BOORD
GRENWITZ
GLAIRE
WALTERTON
CORWAY
BANDMASTER
KOLBECK
BRIEST
GRAYCOAT
HESELF
ROCKFORD
TOSTOFF
ITHER
DRORIN
TUBFUL
REBIRTHS
PASA
BIVOUAC'S
NERLE'S
BULMER'S
NEUE
SHOOA
S'LL
DEELEY
PINKLY
OUK
TUP
JANRIN
DISTRIBUTIVE
SWETE
ENGLANDISM
FRIENDLIES
MENHIR
TOMPKINSVILLE
LINGEN
DARMESTETER
WENASTON
NEARSIGHTED
BEAUTIFULNESS
BERTHOLD
SPEARSMAN
TANTRA
EGINHARD
RINGMASTER
LIVERIGHT
VIDA'S
EUCKEN'S
ENTRECHATS
PANKHURST
TORYISM
MADDALENA'S
DETTMAR
GREATHOUSE
BASSEIN
MEROSAILLES
MALCOLMSON
SURPRIZINGLY
TUCCA
EURASIAN'S
HALP
SOBERSIDES
POWHATTAN
VOLANTES
TRANSSHIPMENT
KORRIGANS
CHINKY
CULTIVATIONS
SYLANT
COLAZIONE
ANNISTER'S
D'ITALIA
ROWANS
CALUMNIOUSLY
INCAPACITATES
CAMAGUEEY
PISCATOR
KRONERS
JULIEN'S
DEARED
HEAVYISH
SPIFFY'S
MOTHY
HASSLING
HESSELIUS
MONTMAGNY
WIO
ROKEBYS
GOSHMEELEE
RECREATES
SAUGH
JATHROP'S
PLANTAT'S
CHUBIKOFF
SHARPEN'D
DOLBAN
FLOUNDERIN
LINDY'S
HSIN
PRETYMAN
OVERLOOKIN
TRANSPOSES
MARGO
GAZNA
ORNEE
VISCAYA
PEDOMETER
STANISLOFF
NANZICELE
OPPORTUNIST
AUCKLAND'S
JAGENAL
BARNABAS'S
FASHED
CONCAVITIES
LACHRYMAE
SLUT'S
URWELT
EXITING
DELAPLACE
WEYMAN'S
SCANDALMONGERS
TIKA
O'REARDON
BHYRO
WAREN
AMUSIS
SOYLE
CLUMBER
SEGMENTATION
GROUTS
ALBERTINE
CHILEAN
AMANTHUS
BINN
ISTIS
JUAREZ
MAKELL'S
BARRATRY
PIPPLE
HUSKIE
WATERETH
CANOPIC
PELLISSON
SHINGISS
FOSTINA'S
DAVENANTS
COUNCELL
WEATHERSTAFF'S
EENDS
MOORMAN
MOONSHIP
BREAUTE
MONTIGNAC
MANDEL
DYAH
HORGAN
TOW'R
COULD'VE
RARITAN'S
UMBRAE
MANUA
MESTAYER
GOMOV
KESTON
COMPELED
SKERRETT
MURMER
CARHAYES
TRUSTCOTT
CONTINUS
ARITHMETICON
POSILIPO
NADEJDA
DWAYMENAU
IBSENITES
GUTCHKOFF
SELLICK
IRKETH
PREFERRETH
BETIDETH
HONOURETH
BESPAKE
GOUTS
EXCEEDETH
EUNUCH'S
DEVOUTNESS
MAKEN
WOTTETH
COMPLAINANT
SOARETH
CARPING
HIGHS
BLAMER
LEVEN
FAILETH
ZAMAN'S
RECITER
BENEFICENTLY
ESCHEW
RECEIVEST
WAYFARE
SERVETH
PASSERBY
UNPLACED
GREE
DROMEDARIES
COVETISE
CONFEST
ASWOON
OMAR'S
EIGHTIETH
SEVENTIETH
COMPENDIUMS
OPEROSE
MANTONS
OBSERVANTINE
COMANA
SUNSTONE
MISSIONER
LITERA
WEYER
AWFU
REFUSEST
ERYSICHTHON
BEARANCE
TELEMACHUS'S
ACHAN
PACHMANN
JORCE
QUELLD
LEGISLATIONS
SAUNTERINGS
BELLI
PEMBROKE'S
BUMMING
NASTINESSES
BUYIN
ROIL
UNSEAL
UNCONSECRATED
THUDS
PROELIO
BUSHWHACKING
UNMEET
TOOMEYS
USANCES
AMALTHEA'S
BYBLUS
SPLENDIFEROUS
HUNAUDAYE
GIRAFFES
CRAC
CITTA
AMEINOCLES
TURVIED
DRACULAS
BRIDALS
BLOODE
DIRECTRESS
MILVAINS
DEWSILKY
VALEDICTORY
GORGE'S
COMPELLETH
GLADDEST
FIREMAN'S
MAKAN
AFEARD
SLANDERER
STRANGERHOOD
POSSESSETH
ORDERETH
CHAMBERLAIN'S
FORGETTETH
CONTROLLER
CASTRATO
DESTROYETH
DANDAN
WANDERETH
THERETO
SLAYETH
ANTIPHON
PURPORTED
BURGHS
CANTLE
HEREOF
DISSECT
BARBAROUX
LIBERTIE
NASTIER
LOVSH
SAMMYADD
BIDDEST
SAYETH
IRK
HAMMAM
STOKER
BEHOVETH
PUTTETH
REMAINETH
ZAU
DREE
KETTLEDRUMS
MORROWED
KAZIS
LEACH
SUGARED
SPIRED
AZIZ
GIRTHED
WO
CAUSETH
SANCTIONING
SEVERUS
FORTISSIMO
CAROUSAL
KHORASAN
COSTLIEST
NEVERMORE
GLOOMIEST
BADAWI
SHOULDEST
REUNITE
SOUGHTEST
IMPROVISATION
JILTED
BIDDETH
RECK
DEFENDANT
BEGUILING
REARRANGED
USABLE
BARBECUE
JACKAL'S
WEBB'S
ANTIQUARIANS
TARTARIC
CONCERTO
SHERBET
SWARE
TEEM
CARK
DISTEMPERS
ANENT
IMPROVISING
SIB
JOYANCE
ASCETICISM
BEFAL
DEVOTEE
EVENTIDE
FREEST
NUZHAT
ELUCIDATED
UNBLINKING
SAELLVERTU
CROCUS
COLEBROOK
THINKETH
JOYED
ENDURETH
EXPIATE
ENTHRALLED
GAVEST
HARPS
BOSOMED
UNDERGRADUATES
AMBUSHES
LEWIN
JOSCELYN'S
MALABAR
NOTEPAPER
EXTERNALS
CHASTISE
FORSWORN
KERCHIEFS
DINERS
ERASED
NOTABLES
DROMEDARY
MINIONS
BERULLE
TROOPED
ALLAH'S
ILLUMINATE
FALLETH
SEVERANCE
CERTIFIED
GIRD
BRINGETH
PITCHERS
ADMISSIBLE
IBN
MONIES
WAYFARER
BEHEST
AMBERGRIS
PREST
FRANCESCA
MUZZLES
CRUSHES
FAIRFORD
STRAITENED
PASSETH
LITTERS
CARRIERS
LOVETH
ENOW
MAZIE
CARLING'S
CIRCUMVENT
WOTTEST
GAINSAY
CONDOLENCE
EMIR
NOTIFY
LUSTS
INCONSPICUOUS
PROPRIETARY
DUNES
DEPRESS
BEFEL
MEDIATION
REUNITED
MANLINESS
CONJOINED
MIGHTIER
FASTED
FEALTY
GALLANTS
BRANDRETH
ASSIDUITY
ABD
SANS
REVILE
EMIRS
WAZIRS
BETIDE
STANDETH
DISQUIETUDE
HUMILIATE
PRECEDENTS
VIANDS
COMELINESS
FLOCKING
BORES
COUPLET
WEND
REVERT
SEEKETH
KAZI
VALUATION
WHATSO
PRIVILY
POSTAGE
BULRUSHES
EXHORT
COMEST
MOSLEM
REFUTE
SHARRKAN
EXCELLENCIES
WOEFUL
KORAN
FIREMAN
ALIGHTING
AWNING
DEVOTEES
BELIKE
MAMELUKES
TROUGHS
DIGNITIES
UNSOUND
SPRITE
SEMITIC
BAGHDAD
TAUNTS
NEATH
WHATE'ER
SPURNED
FORESEEING
ALBEIT
REAPPEARANCE
GOETH
CONTRIBUTING
MOSLEMS
RATION
REPENTANT
DISCERNING
HARMED
DEPOSED
DRAINING
SWERVE
ALMOND
OPPRESSOR
INACTIVITY
RECITING
WHOMSOEVER
ZAMAN
SAGES
REUNION
ADOWN
ERST
BITCH
SIPPING
CISTERN
PRITHEE
FLEA
WEAL
LUSCIOUS
PERDITION
ROTTERDAM
MINDFUL
EXORBITANT
BRINE
DIVAN
RAILED
GRANDEES
INJUNCTIONS
TIME'S
SWEETMEATS
INVOKED
SAINTLY
KINDLE
EXTOLLED
BRIMMED
PASSER
TREND
REQUITE
EXCELLENTLY
YORE
VIRGINS
AILS
FOOTSTEP
QUADRANGLE
WAGGED
DREGS
WAST
MUSK
YEARNED
BOSSES
OMAR
PRECEDE
VERSED
LOANS
AIDS
MEDDLING
UNLAWFUL
ERR
DOZE
GIRT
BYGONE
CUE
PHOENICIAN
PERADVENTURE
CRAVED
CONJURED
TARRIED
CADET
VICEROY
PRODIGAL
CROWNING
CONDITIONED
EUNUCHS
TWILL
IMPROVISED
PERFECTIONS
CAVALIERS
MAKETH
HOMEWARDS
YOUTH'S
ANGERED
BEFITTING
QUENCH
BEAUTEOUS
COUNSELLED
HAPLESS
OPULENT
HUG
THIGHS
DESPAIRED
BASHFUL
DUNG
VOUCHSAFED
OPPRESS
PRIZED
ACCESSION
PERSISTENCE
BROTHERHOOD
ILLS
LAMENTATION
QUIETER
COMPRISED
RAIMENT
ONWARDS
KEN
KNOWETH
DAMSELS
FULFILL
EUNUCH
REPOSED
SMITE
ANECDOTES
FIRMAMENT
FUNNEL
BREEDS
ZEST
DONNED
ENQUIRIES
RECITED
MOONS
MONARCHS
WASTES
COUNSELLOR
LISTENERS
DISMISSAL
ABU
GRIEVOUSLY
LEVELS
ENCAMPMENT
NOONDAY
ARIGHT
ORDINANCE
SHOULDST
ACCOMPLICE
LASS
VESTIBULE
SHEDDING
UNANIMOUSLY
CONTENTION
MAYST
FAVOURS
SEEST
DECISIONS
LIVELIHOOD
RECITE
ADORN
HAPLY
THEREFROM
WHOSO
CHOKE
DENOUNCED
BREEZES
HISS
WROTH
DISCORD
WIGHT
WOT
COUPLETS
KHAN
SALUTATION
OBSERVANCE
CHASING
PREPOSTEROUS
MEREST
CONQUERING
FORESIGHT
LOADING
EDEN
GUISE
COUNTRYMAN
SYRIA
FASHIONS
MA
WATERED
GREED
MENDED
CAMELS
BETHOUGHT
EASIEST
GRIEVOUS
AKIN
DIVERT
PAVILION
LANTERNS
TWAIN
FURTHERMORE
DAMASCUS
MOURN
THANKING
SUITORS
MOURNED
AWED
REGRETS
CHAMBERLAIN
IMPERTINENCE
FORBIDDING
CONSOLED
COMMITTING
LIDS
PERVERSE
COMETH
WHEREAT
WATCHMAN
BLEST
LOADS
CANON
SHRIEKS
SHAHRAZAD
IMPOSE
PILGRIMAGE
OMEN
DIVERTED
HISTORIES
WAZIR
LAMENTED
MASTERY
WALLED
SNATCH
GUARANTEE
ORDAINED
TRADER
FOOTMEN
JOURNEYED
TORCHES
MOHAMMED
DEARER
SHAFTS
ACCOMPLISHMENTS
DETACHED
CONTENTMENT
NE'ER
EXCEEDED
DRUMS
THEREON
LIAR
LIVERY
COMPETENT
ENQUIRED
STREAMED
UNCOVERED
WITHAL
ZEALOUS
LUST
FORBEAR
WILLS
VALE
GENIAL
BESET
WARE
APOSTLE
BAFFLED
ALIGHT
FAINTING
UNITE
STANDARDS
GEORGIA
SOOTH
EXTRACT
SWEETHEART
PAVED
JUDGEMENT
LINGER
DISCONTENT
FLAGS
MARVELLED
CARAVAN
SITE
CONVERSED
SUITE
KNOWEST
SENSELESS
NIGHTFALL
SKILLED
PIETY
GLEE
SAITH
BENEVOLENT
ALIEN
MODES
CONCEALMENT
LEISURELY
DEEM
COINS
SPACIOUS
NURSES
RIGHTEOUSNESS
BEFALLEN
PHIL
FARED
OVERTAKE
EN
DISTURBING
INVESTED
SILKEN
BURNS
LITTER
DISPOSE
RECKONING
SORELY
COMPROMISE
STATIONED
SINGER
THEREWITH
DISPERSED
WOULDST
WAILING
AFFLICTION
BLAMED
FLEE
ACCESS
QUIVERED
CHICKENS
DISTRACTED
ROUSE
BREEDING
CHOOSING
AUSPICIOUS
ESPECIAL
BIN
STRAY
SECURING
WEARS
GLADNESS
BAT
MORTALS
STEED
FORWARDS
STRESS
LABOURS
FIXING
PENALTY
MERCIFUL
DRAIN
TROD
DEBATE
ENTREATED
PERILOUS
DIVORCE
VOW
STEAD
SHORTER
FAIREST
SUBMISSION
DRAWS
GREEDY
TRADITIONS
CALAMITY
INFANCY
ATTENDANCE
ASSUREDLY
OPPRESSION
BUYING
DEPRESSION
TRUMPET
COUNTRYMEN
CONFERENCE
FLUTTERED
PREVAIL
AFAR
BEWARE
LASTLY
SHRIEKED
JEWEL
PLEDGE
INSENSIBLE
BLESSINGS
SAGE
ALOFT
AWAIT
LOVELINESS
PERPLEXED
ISRAEL
SUITS
KISSES
GAINING
FORTHWITH
OBLIGATION
ABIDE
EXCEEDING
CANST
NAUGHT
BLISS
ALIGHTED
PEER
DEALT
REPAIRED
SCIENCES
ATTRIBUTED
MANHOOD
RESTS
CAUSING
DARKENED
EXCESSIVE
TRIBUTE
TENTS
REFUSING
WISELY
WI
MOUNTING
PLUMP
TORCH
SPED
PEOPLES
PITCHED
AFFLICTED
MARVEL
EVERLASTING
DIDST
ENDOWED
SEIZING
EXALTED
CONVERSE
STEPPING
HORSEMEN
SKIRT
FAIN
DAGGER
DAMSEL
ALMIGHTY
PROOFS
REJOICE
ADMISSION
WEARINESS
PRECEDED
TRAY
FETCHED
REALM
FALSEHOOD
VERILY
OVERWHELMED
VIRTUOUS
COMPLAINED
BACKED
FREED
THEREOF
WHEREBY
DOOMED
DEALING
DESPISED
FUNCTION
REPEATING
REFER
PIOUS
SOBBING
SALVATION
TALENTS
EXCESS
PRAISED
ROBES
SPAKE
GRIEVED
BEHAVIOUR
DOOM
SUBTLE
RACES
WARD
TIDINGS
COMMIT
FORBID
AWHILE
