XIII
WORDE
BOBBETT
OTARD
YT
CAXTON'S
ATMOSPHERE'S
HARDPAN
LT
PANTALOON'S
XII
HOSTELRIE
BUL
GRINGO
TERRITORIALLY
CHELTON
FANSHAW
XI
SCHAICK
WHEREASES
AMBOY
ENTENTE
LANGAGE
D'EFFERNAY
WENDLAND
PEIHO
HEL'S
CONSERVER
ERUPTED
KRADEN
RASHIE
ANFISA
PECTUS
BURE
BERKOW'S
JOURN
CHRISTIANNA
DOWELL'S
SOBRINO
TEBUAN
TOURNUS
WOMEN'
SANHEDRIN
JACQUEMART
ENNISON
CUNLIFFE
PORTIONING
FUTURI
TAXIDERMIST'S
DHIL
SLIPPERLESS
IMAGERIES
TRIVIALLY
DROVER'S
DYMOCK'S
VEAUX
CEN
MORAYMA
DRABDUMP'S
VERAN
BRANDOW'S
CANOA
WITOLD'S
POGANUC
CABRERA
SMOOTHES
PUERILITIES
MGWALI
UNCONTROVERTED
HURS
SCHUMACHER
TICKLER
DOTTLE
EGYPTUS
SENTEST
PHA
CLASSON
SANGINNE
TIDORE
ICHANG
PICCANIN
GHURKA
VANDERGILT
MARCELINA
INDECOROUSLY
SPIZZA
MARVELLE
DOWNA
DANBY'S
COMTHUR
CHAUDE
KRYUKOV
VERMILIONVILLE
TANE
TIBBINS
ROADMEN
AVELLINO
EVENTUATED
IPSI
PURGATORIES
ERMENRICH
ILVERTHORPE
AMBERSONS
CLANGS
JOSSELINE
HOPTOADS
LOBON
BOTHIES
COUGHAM
LONGSHOREMEN'S
GRANGEVILLE
REBAIS
LUR'D
MAHAFFY
GRAUBUENDEN
ZBROJEK
STRATHCONA'S
ATILT
CHAUBERT
DRUZE
ROSAMONDE
ARISTOTLES
M'AVAIT
BRICK'S
ABLETHORPE
MAYME
ANE'S
FARRINGDON
SLAPJACK
PIERCINGS
TELEMACHIAD
KURUMA
VALIDE
HENSHAW'S
SZEKLERS
LUGAR
FASTRADA
ENCLITIC
CARLS
GLIMMERINGLY
WAYLEAL
INQUESTS
GRACKLES
ROUGING
HADYN'S
GASTRON'S
ZOPPOT
NADEZHDA
TREEING
CHAMBELLAN
COMMENDATORY
KLAXON
KOKOVTSOV
POMMERS
PHILONOUS
ACCADIAN
PAVON
T'WILL
REIGN'ST
TENTMAKER
LATERANUS
SEAHAM'S
PERCIVALE'S
SWINGINGLY
FANFARON
SPIRITLAND
SOLL
EOGHAN
BELGIAN'S
GUAIACUM
TEJU
CADBY
BENHADAD
PASCUAL'S
BEECHY'S
GOUACHE
HORNABY
FRANZEL
O'ERLEAPS
HOLS
LORAM
FORSETI
FOOD'S
OCHTERLONY
GARBETTS
SIKH'S
BEANE
PRYSE
EVER'THING
ENLIGHTEN'D
OLIVIER'S
RILES
MATHESIUS
GUIBERT
DEG
CLEANOR
CHILLINGWOOD
GERVIS
TEAGOWN
OSBERNE'S
TRICYCLES
REPENTIN
FRAISE
AURIAC
STEE
WUERZBURG
QUELLO
MASSA'S
ROULET
ABBEY'S
COL
FAIRMOUNT
GIRARD
WOULD'NT
BERIAH
UNCONCIOUSNESS
ROSIN
BAGATELLE
PONIATOWSKI
TOKE
EVANESCENCE
BIBULOUS
RACEHORSE
UNTILL
STEPANIDA
HOOFSTEPS
RAGOTZY
BAWTREE
BERNESELIS
ABJECTNESS
MALDETTO
PASTA
NASCENT
AMENDEN
TUSCULAN
NUTATION
GUELF
PUNISHMUNT
PELELIU
HOE'S
CRAFTSMASTER
TUNNY'S
OHIO'S
COLUMBELL'S
REDMAN
LUCRATIVELY
FRUITLESSNESS
INFORTUNATE
POPULARIZATION
HUSHEST
PREVENTIVES
LOGARITHMS
THURSTON'S
BRIERLY
MALCOLMS
TOOTED
TERRAPIN
YMBERCOURT
MANFREDI
PURDY
CANTONS
FRANKER
COBURG
THREADLIKE
LATINITY
STONEMAN
CLAAZ
UNPLEDGED
MISINTERPRETATIONS
CHRISTY
PACHACAMAC
UNCULTURED
ALMIGHTY'S
WO
LACKLAND
FAMISHING
CANVASSED
DETRACTION
FERMENTING
FLYER
DORKING
DHU
DALLYING
GRAPEVINE
CASTERS
BARKEEPER
INOCULATION
CUTAWAY
PURITANIC
BIDDEST
CAULAINCOURT
ENTREES
VENVILLE
LICHT
JAFFA
COMPOSER'S
WAZIRATE
CRESPIGNY
STORYBOOK
OUTLAW'S
BACKWOODSMAN
RUSTICS
EXPECTORATION
PRECIPITATING
CONTRACTORS
PLANTER'S
VENDER
MISTO
MOOCHER
WHEREUNTO
CONTUSION
RASHLEIGH
COSIMO
MORALITIES
INHERENTLY
KIDNEY
CLASSMATES
WALTZING
ALTON
ABSENTED
WEAN
GRUBBING
CASS
PHILANTHROPISTS
KITTEN'S
NUTRIMENT
INFLATION
ACQUAINTANCESHIP
NIGHTINGALE'S
MODICUM
IMPARTS
NONPLUSSED
PEORIA
EPIDEMICS
COMMUNING
WORTHIEST
RETRENCH
FELLAH
CORNET
TRANSPIRED
QUESTIONINGS
FERRETED
DEPOPULATED
TECHNICALITIES
WRAPPERS
MALLATHORPE
UNDEFINED
RODERICK
RUT
ECONOMIZE
BELITTLE
CAPITALISTS
RESIDUE
PRUNES
FIFTIES
DISGRACING
PREVENTIVE
GLORIFY
INNUENDO
DOMICILED
UTHER
CATHAY
LIABILITY
TRANQUILITY
EJACULATIONS
PUMPED
CONDOLENCE
BARBER'S
SAUNTER
ESTRANGEMENT
SHARPEN
GIBBS
EXHAUSTIVE
PREMONITION
FLASKS
CONTRACTOR
CORRESPONDINGLY
ASTOR
PIECED
APPROPRIATIONS
INTRUSIVE
TINSEL
DEFECTION
GIRDLED
BLINDFOLD
FOSTERING
HORSED
LAFAYETTE
ADROITNESS
BENIGHTED
CA
GENTLEMEN'S
TAXICAB
WEAKLING
EMBELLISHMENTS
RESPECTABLY
MAUDLIN
TURNIP
MONTREAL
LEVEE
CLINK
JOURNALISM
JIG
SPINAL
JOCKEY
ATTAINABLE
APOLOGIZING
EXULTED
AUTOBIOGRAPHY
STRICTNESS
EXPERIMENTING
DUELS
HARPOON
GLORIED
SEMINARY
DELEGATE
DRUDGERY
SCRIBBLING
MORTIFYING
QUALIFY
SHIELDED
PLEADINGS
COMPLEMENT
PLODDING
FUNERALS
INGREDIENT
SWAGGER
CAUSEWAY
HILARIOUS
SECRETED
JUICY
ERIE
THRIFT
WHARVES
PROVIDENTIAL
PARAGRAPHS
MASTERING
RODNEY
JOINTED
EXHILARATION
ALTERS
TOWED
FERMENT
PROFUSELY
VALISE
PREOCCUPATION
MUM
SUBLIMITY
PRAGUE
LAURA'S
DISSOLUTE
MYTHS
GUARANTEED
MULTITUDINOUS
SH
EXPLANATORY
SHUTS
HEARTEDNESS
LOATHED
LOUNGED
FOOTSTOOL
DEARIE
PROWLER
SWELLS
AGLOW
SNEAKING
CURES
APPLAUD
GOSSIPS
INCIPIENT
ENGINEERING
JOURNALS
DUDLEY
LAPSED
TRANQUILLY
MINT
SELLERS
RESTRAINTS
DUFF
BORING
SARCASTICALLY
SUSTAINING
MOBILE
DEBATING
SALOONS
CLIENTS
GERMS
PAYMENTS
DISTASTEFUL
CRAVAT
REVERED
COPYING
ANGELO
GYMNASIUM
BEGUILED
STATUTES
ATLAS
CENTRED
BLUNDERED
IMMACULATE
TRADESMEN
DISAPPROVE
STEAMBOAT
SUBURBAN
ANTICIPATIONS
BYRON
AIRILY
POPPIES
ASIATIC
ANTOINETTE
SQUEAKING
CAMDEN
OSTENSIBLY
FEES
HITCHED
BOLTON
BROKER
TUG
DEFIANTLY
CONTRACTS
PLEASANTEST
METROPOLITAN
DEPARTMENTS
RAPT
HAWKEYE
PLOTS
MANAGERS
DISDAINFUL
CONSISTENCY
SAUSAGES
SCRAPED
GOSSIPING
TUT
POKER
EDITORIAL
DETESTED
PURCHASES
EXALTATION
INFORMS
WILY
KANE
CLAIMING
SPIRE
WITHER
WHIPPING
ALTERNATE
SHAPING
GRADUATED
COUGHING
BOOMING
DOCKS
COLONEL'S
INSUPPORTABLE
MALCOLM
VEST
VIZ
CONFLAGRATION
ANTE
DEFECTIVE
SOARING
CALMER
BUZZ
BREAKFASTED
ABSORB
BELLOWING
JOVIAL
REMARKING
PANAMA
SLEEK
DILIGENTLY
DESCENDS
ANNOYING
CONTRIBUTION
PENCILS
THEOLOGICAL
AFORESAID
MUSTARD
TYRANNICAL
GRADUATE
SLAPPED
PERFUMED
PHILIP'S
LEATHERN
TRANSPORTATION
INSISTING
ACQUITTED
DEPORTMENT
CONTRIBUTIONS
VOCATION
FATED
BILLIARD
BROADWAY
BARRIERS
RAILS
WARNER
SHIPPING
IDOLS
TUNES
WADE
GEOGRAPHICAL
N'T
QUIETED
PLEASANTER
DECLINING
MAGAZINES
CLAUSE
WRISTS
WINTRY
WHISKEY
ABIDING
CONDESCEND
FAINTEST
HEROISM
OBSERVANCE
MIXING
FASTIDIOUS
CIGARS
LESSEN
DREAMER
WEEK'S
INFORMING
GLOSSY
RIGHTFUL
ATTACH
ACCORDED
ENGINEERS
PROFILE
IDLENESS
CORRIDORS
METROPOLIS
UNLIKELY
SLAP
STOUTLY
BALTIMORE
IMPORTED
LOBBY
TURNIPS
ENGROSSED
FEASTS
IMPARTED
LISTENER
PENSIVE
INVITATIONS
PEACH
UNSUCCESSFUL
FREEZING
PORTLAND
LICK
KILLS
SHAVEN
FLAVOR
QUART
PEACEFULLY
PAGAN
ADVENTURERS
DISPLAYING
SUB
THANKING
IDLY
IMMINENT
CEASELESS
HOVERED
SKILLFUL
NOTTINGHAM
SHOVED
ACHIEVEMENT
PROJECTS
ELASTIC
EMPLOYER
DIRE
WARDROBE
FLOURISHED
PECULIARITIES
SUSCEPTIBLE
DIALOGUE
GAPING
RHEUMATISM
HENRY'S
MINGLE
UNCOMMONLY
SEATING
DEPOT
VILLAGERS
BRIM
TWINKLED
PEACOCK
ORCHESTRA
CEASES
LOVER'S
FRYING
HOTELS
SUBSEQUENTLY
CEASING
LAYS
DANDY
SUBORDINATE
COMFORTING
HAWKINS
MISSOURI
LIVERPOOL
OFTENER
LAPSE
MORBID
CAT'S
DEPOSIT
REMINDS
HOUR'S
PRIZES
ELECT
METALLIC
QUERIED
OAR
INDISTINCT
PERILS
STRAYED
FORSAKE
PLEA
VALANCOURT
YALE
HEAVED
MALICIOUS
ELDERS
COMPEL
WASTING
DEFY
CHEERFULNESS
CHESTNUT
FIDDLE
HOSPITABLE
GRUNTED
SINGS
MINISTRY
UNACCOUNTABLE
GENIAL
BARRY
LURKING
REGULARITY
MUSING
PULPIT
CONFINE
SPIT
IMPENETRABLE
OFFSPRING
PATIENTS
FLUID
HURSTWOOD
NURSED
PERSECUTION
ODDS
JACQUES
CHATTERING
EXTENSION
TEMPERANCE
TRAVELERS
PROVINCIAL
LARRY
PITIED
RECEIPT
INDUSTRIOUS
SPIED
HAZE
PROCESSES
MOTIONED
HEROINE
COMEDY
ADVANCES
FRONTIER
ALTERNATELY
PREVAILING
STOOP
BANQUET
CONCEALMENT
LIMP
INSOLENCE
CONTEMPLATED
THRILLING
STERLING
SHIFTING
FAVORED
CRAWLING
LANGUID
SILKEN
BENCHES
DWELLINGS
STUPIDITY
JERSEY
STATIONS
WARMED
WHIRLWIND
BOARDING
OPERATOR
FRANKLIN
BARRED
BRINK
BURTON
COMPROMISE
EXPLOSION
HAZEL
OPERATE
AFFLICTION
PROFOUNDLY
TRAFFIC
SHIFT
DISTRACTED
GAIT
TOILET
PATTED
HAULED
EXCUSED
ATTENTIONS
VOID
PATHETIC
DROWN
HOPEFUL
ALLOWANCE
PLANK
SIZED
AIRY
CURLY
SPECULATION
RICHEST
BUD
KNITTING
RUBBER
MAGNETIC
STRIPED
HANDLING
ONTO
SCOTT
DETAINED
SKETCH
TRAVELED
CASUAL
STUMP
FRAGRANT
DIET
RANDOM
OVERHEARD
STEAD
MAGAZINE
ATTIRE
POISONED
JAW
CONJECTURE
SCRAMBLED
TRADITIONS
ATTENDANCE
PLANTATION
PACKING
PARTIALLY
COVERS
DEPRESSION
MONOTONOUS
OBSCURITY
WIDER
PROMPT
SALOON
BRAND
SALARY
RATTLE
CONFIDENTIAL
MISSIONARY
SNAKES
PLUCK
SUITS
WHATSOEVER
APPRECIATION
DELIBERATE
ILLUSION
SESSION
EXPRESSIVE
MAJESTIC
REVELATION
INFLUENCES
PREACH
EXPECTATIONS
DRIFTING
REPENTANCE
BLOSSOMS
CONFRONTED
ARISTOCRATIC
WHERE'S
YEAR'S
AIRS
SCIENCES
ELABORATE
ORLEANS
BOARDS
HUMBLY
INDIGNANTLY
POLISH
PROSPEROUS
SEEMINGLY
APOLOGY
SCREAMING
ACQUAINTANCES
EXCESSIVE
DISCOVERING
SHALLOW
SMOKED
FORK
PATTERN
SLEEVES
LACKING
LODGINGS
EXPENSIVE
VISIONS
REPAIR
WINNING
DEVELOP
STROLLED
PECULIARLY
CASH
HUM
HISTORICAL
REPRESENTATIVES
IMPROVE
NAPLES
MOURNFUL
INTOLERABLE
ECONOMY
REACTION
JO
HEARS
PINT
SOUNDING
STRIP
ADMIRING
TOUCHES
CLIMATE
GOSPEL
SNAP
BULK
CRACKED
COMMENT
COSTLY
WHISKERS
SWING
HEAPS
COSTUME
CONVENTION
PROMINENT
EMBARRASSED
RESPECTFUL
IMMORTAL
EDITOR
LATEST
POLITELY
FLUSH
DIFFER
CROOKED
COWARD
HUMMING
CONSULT
MARIA
DEALING
IMPERIAL
DAINTY
EVENINGS
VENERABLE
SUBSTANTIAL
LIQUOR
FEEDING
OPPORTUNITIES
BIND
TUMULT
MAP
FAITHFULLY
PROMISING
ALLOWING
PILED
PRAISED
CURLED
ABUNDANT
DREARY
BOTHER
RESPECTED
TRADITION
BELIEVES
PASTE
RAW
BLUFF
TASTED
TRAVELING
TUNE
INNUMERABLE
ENTHUSIASTIC
CURSED
DESPISE
INDIGNANT
ENCOURAGEMENT
DRIFT
DISTRESSED
WARD
TALENT
CORRESPONDENCE
CHICAGO
CHAMBERS
COOKED
DISMAL
